data_Dy3Al5O12

_cell_length_a 11.8()
_cell_length_b 11.8
_cell_length_c 11.8
_cell_angle_alpha 90.0
_cell_angle_beta 90.0
_cell_angle_gamma 90.0
_space_group_name_H-M_alt 'I a -3 d'

loop_
_atom_site_label
_atom_site_type_symbol
_atom_site_occupancy
_atom_site_fract_x
_atom_site_fract_y
_atom_site_fract_z
_atom_site_adp_type
_atom_site_U_iso_or_equiv
Dy Dy3+ 1.0 0.125 0.0 0.25 Uiso 0.0
Al1 Al3+ 1.0 0.375 0.0 0.25 Uiso 0.0
Al2 Al3+ 1.0 0.0 0.0 0.0 Uiso 0.0
O O2- 1.0 0.0306(1) 0.050(21) 0.648(31) Uiso 0.0
