data_Co2SiO4

_cell_length_a   10.28(2)
_cell_length_b   6.03(1)
_cell_length_c   4.75(1)
_cell_angle_alpha   90.0
_cell_angle_beta   90.0
_cell_angle_gamma   90.0
_space_group_name_H-M_alt   'P n m a'

loop_
 _atom_site_label
 _atom_site_type_symbol
 _atom_site_occupancy
 _atom_site_fract_x
 _atom_site_fract_y
 _atom_site_fract_z
 _atom_site_adp_type
 _atom_site_U_iso_or_equiv
  Co1  Co  1.0  0.0  0.0  0.0  Uiso  0.0
  Co2  Co  1.0  0.279(2)  0.25  0.985(2)  Uiso  0.0
  Si  Si  1.0  0.094(1)  0.25  0.429(2)  Uiso  0.0
  O1  O  1.0  0.091(2)  0.25  0.771(2)  Uiso  0.0
  O2  O  1.0  0.448(2)  0.25  0.217(2)  Uiso  0.0
  O3  O  1.0  0.164(2)  0.032(2)  0.28(1)  Uiso  0.0

